C24H42N7O16P3S
APtclcactv12141712153D 0   0.00000     0.00000

 93 95  0  0  1  0  0  0  0  0999 V2000
   -7.3699   -4.5721   -0.9377 N   0  0  0  0  0  0  0  0  0  0  0  0
   -7.7936   -5.8173   -0.9917 C   0  0  0  0  0  0  0  0  0  0  0  0
   -7.0185   -6.8434   -0.6916 N   0  0  0  0  0  0  0  0  0  0  0  0
   -5.7561   -6.6657   -0.3159 C   0  0  0  0  0  0  0  0  0  0  0  0
   -4.9513   -7.7474   -0.0038 N   0  0  0  0  0  0  0  0  0  0  0  0
   -5.2574   -5.3541   -0.2435 C   0  0  0  0  0  0  0  0  0  0  0  0
   -6.1222   -4.2964   -0.5725 C   0  0  0  0  0  0  0  0  0  0  0  0
   -4.0643   -4.8054    0.0890 N   0  0  0  0  0  0  0  0  0  0  0  0
   -4.1397   -3.5102   -0.0129 C   0  0  0  0  0  0  0  0  0  0  0  0
   -5.3895   -3.1468   -0.4179 N   0  0  0  0  0  0  0  0  0  0  0  0
   -5.8633   -1.7796   -0.6467 C   0  0  1  0  0  0  0  0  0  0  0  0
   -6.5586   -1.7509   -1.4857 H   0  0  0  0  0  0  0  0  0  0  0  0
   -6.5282   -1.2111    0.6328 C   0  0  2  0  0  0  0  0  0  0  0  0
   -6.0000   -1.5437    1.5263 H   0  0  0  0  0  0  0  0  0  0  0  0
   -7.9089   -1.5745    0.6946 O   0  0  0  0  0  0  0  0  0  0  0  0
   -6.3665    0.3154    0.4315 C   0  0  2  0  0  0  0  0  0  0  0  0
   -6.1013    0.7982    1.3721 H   0  0  0  0  0  0  0  0  0  0  0  0
   -7.5676    0.8801   -0.0979 O   0  0  0  0  0  0  0  0  0  0  0  0
   -8.0571    1.9995    0.9506 P   0  0  0  0  0  0  0  0  0  0  0  0
   -6.9629    2.9682    1.1847 O   0  0  0  0  0  0  0  0  0  0  0  0
   -9.3380    2.7707    0.3533 O   0  0  0  0  0  0  0  0  0  0  0  0
   -8.4560    1.2940    2.3417 O   0  0  0  0  0  0  0  0  0  0  0  0
   -5.2141    0.4424   -0.5837 C   0  0  2  0  0  0  0  0  0  0  0  0
   -5.5750    0.9162   -1.4966 H   0  0  0  0  0  0  0  0  0  0  0  0
   -4.7513   -0.8880   -0.8771 O   0  0  0  0  0  0  0  0  0  0  0  0
   -4.0789    1.2723    0.0191 C   0  0  0  0  0  0  0  0  0  0  0  0
   -3.0670    1.4830   -0.9677 O   0  0  0  0  0  0  0  0  0  0  0  0
   -1.9103    2.3580   -0.2687 P   0  0  2  0  0  0  0  0  0  0  0  0
   -1.4498    1.6748    0.9608 O   0  0  0  0  0  0  0  0  0  0  0  0
   -2.4914    3.8108    0.1103 O   0  0  0  0  0  0  0  0  0  0  0  0
   -0.6735    2.5233   -1.2861 O   0  0  0  0  0  0  0  0  0  0  0  0
    0.6112    2.9131   -0.3974 P   0  0  1  0  0  0  0  0  0  0  0  0
    0.2082    3.8656    0.6611 O   0  0  0  0  0  0  0  0  0  0  0  0
    1.2188    1.5845    0.2791 O   0  0  0  0  0  0  0  0  0  0  0  0
    1.7267    3.5951   -1.3369 O   0  0  0  0  0  0  0  0  0  0  0  0
    2.7850    4.0232   -0.4773 C   0  0  0  0  0  0  0  0  0  0  0  0
    3.8841    4.6838   -1.3118 C   0  0  0  0  0  0  0  0  0  0  0  0
    4.4277    3.6773   -2.3278 C   0  0  0  0  0  0  0  0  0  0  0  0
    3.3065    5.8928   -2.0505 C   0  0  0  0  0  0  0  0  0  0  0  0
    5.0172    5.1421   -0.3915 C   0  0  1  0  0  0  0  0  0  0  0  0
    5.8420    5.5241   -0.9931 H   0  0  0  0  0  0  0  0  0  0  0  0
    4.5403    6.1749    0.4734 O   0  0  0  0  0  0  0  0  0  0  0  0
    5.4960    3.9763    0.4347 C   0  0  0  0  0  0  0  0  0  0  0  0
    5.2083    3.9078    1.6109 O   0  0  0  0  0  0  0  0  0  0  0  0
    6.2439    3.0097   -0.1335 N   0  0  0  0  0  0  0  0  0  0  0  0
    6.7316    1.8901    0.6757 C   0  0  0  0  0  0  0  0  0  0  0  0
    7.5484    0.9422   -0.2048 C   0  0  0  0  0  0  0  0  0  0  0  0
    8.0502   -0.2095    0.6276 C   0  0  0  0  0  0  0  0  0  0  0  0
    7.7810   -0.2666    1.8088 O   0  0  0  0  0  0  0  0  0  0  0  0
    8.7981   -1.1761    0.0594 N   0  0  0  0  0  0  0  0  0  0  0  0
    9.2858   -2.2957    0.8686 C   0  0  0  0  0  0  0  0  0  0  0  0
   10.1026   -3.2436   -0.0119 C   0  0  0  0  0  0  0  0  0  0  0  0
   10.7066   -4.6299    0.9900 S   0  0  0  0  0  0  0  0  0  0  0  0
   11.6127   -5.5618   -0.2753 C   0  0  0  0  0  0  0  0  0  0  0  0
   12.3310   -6.7440    0.3786 C   0  0  0  0  0  0  0  0  0  0  0  0
   10.6307   -6.0805   -1.3277 C   0  0  0  0  0  0  0  0  0  0  0  0
   -8.8135   -6.0067   -1.2924 H   0  0  0  0  0  0  0  0  0  0  0  0
   -5.3070   -8.6482   -0.0579 H   0  0  0  0  0  0  0  0  0  0  0  0
   -4.0315   -7.6048    0.2691 H   0  0  0  0  0  0  0  0  0  0  0  0
   -3.3314   -2.8243    0.1936 H   0  0  0  0  0  0  0  0  0  0  0  0
   -7.9425   -2.5404    0.7265 H   0  0  0  0  0  0  0  0  0  0  0  0
   -9.5985    3.4305    1.0105 H   0  0  0  0  0  0  0  0  0  0  0  0
   -9.1700    0.6722    2.1451 H   0  0  0  0  0  0  0  0  0  0  0  0
   -4.4688    2.2346    0.3508 H   0  0  0  0  0  0  0  0  0  0  0  0
   -3.6520    0.7406    0.8695 H   0  0  0  0  0  0  0  0  0  0  0  0
   -2.7797    4.2209   -0.7166 H   0  0  0  0  0  0  0  0  0  0  0  0
    1.4681    0.9919   -0.4432 H   0  0  0  0  0  0  0  0  0  0  0  0
    2.3977    4.7402    0.2465 H   0  0  0  0  0  0  0  0  0  0  0  0
    3.1965    3.1619    0.0489 H   0  0  0  0  0  0  0  0  0  0  0  0
    3.6554    3.4494   -3.0624 H   0  0  0  0  0  0  0  0  0  0  0  0
    5.2950    4.1029   -2.8325 H   0  0  0  0  0  0  0  0  0  0  0  0
    4.7200    2.7625   -1.8122 H   0  0  0  0  0  0  0  0  0  0  0  0
    2.9760    6.6373   -1.3263 H   0  0  0  0  0  0  0  0  0  0  0  0
    4.0730    6.3262   -2.6930 H   0  0  0  0  0  0  0  0  0  0  0  0
    2.4591    5.5762   -2.6586 H   0  0  0  0  0  0  0  0  0  0  0  0
    3.8133    5.7962    0.9864 H   0  0  0  0  0  0  0  0  0  0  0  0
    6.4592    3.0553   -1.0782 H   0  0  0  0  0  0  0  0  0  0  0  0
    7.3603    2.2704    1.4808 H   0  0  0  0  0  0  0  0  0  0  0  0
    5.8840    1.3520    1.1000 H   0  0  0  0  0  0  0  0  0  0  0  0
    6.9197    0.5618   -1.0099 H   0  0  0  0  0  0  0  0  0  0  0  0
    8.3961    1.4803   -0.6291 H   0  0  0  0  0  0  0  0  0  0  0  0
    9.0134   -1.1305   -0.8853 H   0  0  0  0  0  0  0  0  0  0  0  0
    9.9145   -1.9154    1.6737 H   0  0  0  0  0  0  0  0  0  0  0  0
    8.4382   -2.8338    1.2928 H   0  0  0  0  0  0  0  0  0  0  0  0
    9.4739   -3.6239   -0.8170 H   0  0  0  0  0  0  0  0  0  0  0  0
   10.9503   -2.7055   -0.4362 H   0  0  0  0  0  0  0  0  0  0  0  0
   12.3451   -4.9101   -0.7517 H   0  0  0  0  0  0  0  0  0  0  0  0
   11.5986   -7.3957    0.8550 H   0  0  0  0  0  0  0  0  0  0  0  0
   12.8755   -7.3039   -0.3818 H   0  0  0  0  0  0  0  0  0  0  0  0
   13.0306   -6.3744    1.1283 H   0  0  0  0  0  0  0  0  0  0  0  0
    9.8983   -6.7323   -0.8513 H   0  0  0  0  0  0  0  0  0  0  0  0
   10.1190   -5.2384   -1.7935 H   0  0  0  0  0  0  0  0  0  0  0  0
   11.1752   -6.6405   -2.0880 H   0  0  0  0  0  0  0  0  0  0  0  0
  1  2  1  0  0  0  0
  2  3  2  0  0  0  0
  3  4  1  0  0  0  0
  4  5  1  0  0  0  0
  4  6  2  0  0  0  0
  6  7  1  0  0  0  0
  1  7  2  0  0  0  0
  6  8  1  0  0  0  0
  8  9  2  0  0  0  0
  9 10  1  0  0  0  0
  7 10  1  0  0  0  0
 10 11  1  0  0  0  0
 11 12  1  0  0  0  0
 11 13  1  0  0  0  0
 13 14  1  0  0  0  0
 13 15  1  0  0  0  0
 13 16  1  0  0  0  0
 16 17  1  0  0  0  0
 16 18  1  0  0  0  0
 18 19  1  0  0  0  0
 19 20  2  0  0  0  0
 19 21  1  0  0  0  0
 19 22  1  0  0  0  0
 16 23  1  0  0  0  0
 23 24  1  0  0  0  0
 23 25  1  0  0  0  0
 11 25  1  0  0  0  0
 23 26  1  0  0  0  0
 26 27  1  0  0  0  0
 27 28  1  0  0  0  0
 28 29  2  0  0  0  0
 28 30  1  0  0  0  0
 28 31  1  0  0  0  0
 31 32  1  0  0  0  0
 32 33  2  0  0  0  0
 32 34  1  0  0  0  0
 32 35  1  0  0  0  0
 35 36  1  0  0  0  0
 36 37  1  0  0  0  0
 37 38  1  0  0  0  0
 37 39  1  0  0  0  0
 37 40  1  0  0  0  0
 40 41  1  0  0  0  0
 40 42  1  0  0  0  0
 40 43  1  0  0  0  0
 43 44  2  0  0  0  0
 43 45  1  0  0  0  0
 45 46  1  0  0  0  0
 46 47  1  0  0  0  0
 47 48  1  0  0  0  0
 48 49  2  0  0  0  0
 48 50  1  0  0  0  0
 50 51  1  0  0  0  0
 51 52  1  0  0  0  0
 52 53  1  0  0  0  0
 53 54  1  0  0  0  0
 54 55  1  0  0  0  0
 54 56  1  0  0  0  0
  2 57  1  0  0  0  0
  5 58  1  0  0  0  0
  5 59  1  0  0  0  0
  9 60  1  0  0  0  0
 15 61  1  0  0  0  0
 21 62  1  0  0  0  0
 22 63  1  0  0  0  0
 26 64  1  0  0  0  0
 26 65  1  0  0  0  0
 30 66  1  0  0  0  0
 34 67  1  0  0  0  0
 36 68  1  0  0  0  0
 36 69  1  0  0  0  0
 38 70  1  0  0  0  0
 38 71  1  0  0  0  0
 38 72  1  0  0  0  0
 39 73  1  0  0  0  0
 39 74  1  0  0  0  0
 39 75  1  0  0  0  0
 42 76  1  0  0  0  0
 45 77  1  0  0  0  0
 46 78  1  0  0  0  0
 46 79  1  0  0  0  0
 47 80  1  0  0  0  0
 47 81  1  0  0  0  0
 50 82  1  0  0  0  0
 51 83  1  0  0  0  0
 51 84  1  0  0  0  0
 52 85  1  0  0  0  0
 52 86  1  0  0  0  0
 54 87  1  0  0  0  0
 55 88  1  0  0  0  0
 55 89  1  0  0  0  0
 55 90  1  0  0  0  0
 56 91  1  0  0  0  0
 56 92  1  0  0  0  0
 56 93  1  0  0  0  0
M  END
$$$$
