
     RDKit          3D

  7  6  0  0  0  0  0  0  0  0999 V2000
   -0.5300   -0.0050   -1.4260 C   0  0  0  0  0  0  0  0  0  0  0  0
    0.6100    0.0060   -0.4060 C   0  0  0  0  0  0  0  0  0  0  0  0
    0.1590    0.0010   -3.1040 S   0  0  0  0  0  0  0  0  0  0  0  0
   -0.0790   -0.0000    1.2710 S   0  0  2  0  0  0  0  0  0  0  0  0
   -0.6780   -1.2500    1.5860 O   0  0  0  0  0  0  0  0  0  0  0  0
   -0.7030    1.2360    1.5860 O   0  0  0  0  0  0  0  0  0  0  0  0
    1.1590    0.0110    2.1550 O   0  0  0  0  0  0  0  0  0  0  0  0
  1  2  1  0
  1  3  1  0
  2  4  1  0
  4  5  2  0
  4  6  2  0
  4  7  1  1
M  END
