
     RDKit          3D

 16 16  0  0  0  0  0  0  0  0999 V2000
    2.0530   -0.0120    1.9910 N   0  0  0  0  0  0  0  0  0  0  0  0
    1.2860   -0.0080    3.0600 C   0  0  0  0  0  0  0  0  0  0  0  0
    1.9160   -0.0210    4.4290 C   0  0  0  0  0  0  0  0  0  0  0  0
   -0.0980    0.0020    2.9420 C   0  0  0  0  0  0  0  0  0  0  0  0
   -0.8840    0.0070    4.0470 O   0  0  0  0  0  0  0  0  0  0  0  0
   -0.6680    0.0200    1.6570 C   0  0  0  0  0  0  0  0  0  0  0  0
   -2.1290    0.0390    1.4760 C   0  0  0  0  0  0  0  0  0  0  0  0
   -2.8590    0.0430    2.4440 O   0  0  0  0  0  0  0  0  0  0  0  0
    0.1950    0.0150    0.5530 C   0  0  0  0  0  0  0  0  0  0  0  0
    1.5570   -0.0010    0.7690 C   0  0  0  0  0  0  0  0  0  0  0  0
   -0.3560    0.0270   -0.8490 C   0  0  0  0  0  0  0  0  0  0  0  0
    0.7220    0.0180   -1.7850 O   0  0  0  0  0  0  0  0  0  0  0  0
    0.0640    0.0320   -3.2540 P   0  0  1  0  0  0  0  0  0  0  0  0
   -0.7590    1.2510   -3.4140 O   0  0  0  0  0  0  0  0  0  0  0  0
    1.2290    0.0230   -4.3650 O   0  0  0  0  0  0  0  0  0  0  0  0
   -0.8630   -1.2700   -3.4390 O   0  0  0  0  0  0  0  0  0  0  0  0
  1  2  2  0
  1 10  1  0
  2  3  1  0
  2  4  1  0
  4  5  1  0
  4  6  2  0
  6  7  1  0
  6  9  1  0
  7  8  2  0
  9 10  2  0
  9 11  1  0
 11 12  1  0
 12 13  1  0
 13 14  2  0
 13 15  1  6
 13 16  1  0
M  END
