C25H36N5O5S
APtclcactv12141712133D 0   0.00000     0.00000

 72 75  0  0  1  0  0  0  0  0999 V2000
   -6.9096   -2.0592    1.5074 C   0  0  0  0  0  0  0  0  0  0  0  0
   -8.3420   -1.6155    1.7047 C   0  0  0  0  0  0  0  0  0  0  0  0
   -8.6456   -0.8301    0.6786 C   0  0  0  0  0  0  0  0  0  0  0  0
   -7.5023   -0.6995   -0.2279 C   0  0  0  0  0  0  0  0  0  0  0  0
   -6.4681   -1.4014    0.2191 C   0  0  0  0  0  0  0  0  0  0  0  0
   -5.1143   -1.5200   -0.4321 C   0  0  0  0  0  0  0  0  0  0  0  0
   -4.1618   -0.4913    0.1806 C   0  0  0  0  0  0  0  0  0  0  0  0
   -2.5816   -0.5248   -0.7097 S   0  3  0  0  0  0  0  0  0  0  0  0
   -1.7331    0.8576    0.1025 C   0  0  0  0  0  0  0  0  0  0  0  0
   -2.2614    2.1800   -0.4571 C   0  0  0  0  0  0  0  0  0  0  0  0
   -1.5457    3.3459    0.2280 C   0  0  2  0  0  0  0  0  0  0  0  0
   -0.4680    3.2265    0.1167 H   0  0  0  0  0  0  0  0  0  0  0  0
   -1.8918    3.3621    1.6555 N   0  0  0  0  0  0  0  0  0  0  0  0
   -1.9758    4.6427   -0.4079 C   0  0  0  0  0  0  0  0  0  0  0  0
   -2.8123    5.3302    0.1282 O   0  0  0  0  0  0  0  0  0  0  0  0
   -1.4296    5.0340   -1.5699 O   0  0  0  0  0  0  0  0  0  0  0  0
   -1.8440    6.2835   -2.1826 C   0  0  0  0  0  0  0  0  0  0  0  0
   -1.7792   -1.9211    0.1251 C   0  0  0  0  0  0  0  0  0  0  0  0
   -0.4653   -2.2532   -0.5850 C   0  0  2  0  0  0  0  0  0  0  0  0
   -0.6373   -2.3980   -1.6516 H   0  0  0  0  0  0  0  0  0  0  0  0
    0.1757   -3.5157    0.0326 C   0  0  1  0  0  0  0  0  0  0  0  0
   -0.1678   -3.6560    1.0575 H   0  0  0  0  0  0  0  0  0  0  0  0
   -0.1257   -4.6678   -0.7572 O   0  0  0  0  0  0  0  0  0  0  0  0
    1.6917   -3.2186    0.0056 C   0  0  1  0  0  0  0  0  0  0  0  0
    2.0977   -3.2121    1.0172 H   0  0  0  0  0  0  0  0  0  0  0  0
    2.3759   -4.1795   -0.8009 O   0  0  0  0  0  0  0  0  0  0  0  0
    1.7873   -1.8117   -0.6252 C   0  0  1  0  0  0  0  0  0  0  0  0
    1.9626   -1.8881   -1.6983 H   0  0  0  0  0  0  0  0  0  0  0  0
    0.5020   -1.2024   -0.3698 O   0  0  0  0  0  0  0  0  0  0  0  0
    2.8568   -1.0390    0.0115 N   0  0  0  0  0  0  0  0  0  0  0  0
    2.7120   -0.1606    1.0430 C   0  0  0  0  0  0  0  0  0  0  0  0
    3.8663    0.3487    1.3622 N   0  0  0  0  0  0  0  0  0  0  0  0
    4.1885   -1.0719   -0.3178 C   0  0  0  0  0  0  0  0  0  0  0  0
    4.8263   -0.1689    0.5574 C   0  0  0  0  0  0  0  0  0  0  0  0
    4.9175   -1.7232   -1.2132 N   0  0  0  0  0  0  0  0  0  0  0  0
    6.2185   -1.5311   -1.2818 C   0  0  0  0  0  0  0  0  0  0  0  0
    6.8536   -0.6971   -0.4787 N   0  0  0  0  0  0  0  0  0  0  0  0
    6.2068   -0.0020    0.4419 C   0  0  0  0  0  0  0  0  0  0  0  0
    6.9459    0.9462    1.3505 C   0  0  0  0  0  0  0  0  0  0  0  0
    6.9928    2.3346    0.7094 C   0  0  0  0  0  0  0  0  0  0  0  0
    7.7432    3.2973    1.6319 C   0  0  0  0  0  0  0  0  0  0  0  0
   -6.2903   -1.7195    2.3375 H   0  0  0  0  0  0  0  0  0  0  0  0
   -6.8587   -3.1441    1.4152 H   0  0  0  0  0  0  0  0  0  0  0  0
   -8.9927   -1.8858    2.5232 H   0  0  0  0  0  0  0  0  0  0  0  0
   -9.6036   -0.3535    0.5321 H   0  0  0  0  0  0  0  0  0  0  0  0
   -7.5011   -0.1132   -1.1349 H   0  0  0  0  0  0  0  0  0  0  0  0
   -4.7194   -2.5229   -0.2694 H   0  0  0  0  0  0  0  0  0  0  0  0
   -5.2084   -1.3357   -1.5023 H   0  0  0  0  0  0  0  0  0  0  0  0
   -4.6017    0.5029    0.1027 H   0  0  0  0  0  0  0  0  0  0  0  0
   -3.9927   -0.7325    1.2301 H   0  0  0  0  0  0  0  0  0  0  0  0
   -1.9184    0.8174    1.1759 H   0  0  0  0  0  0  0  0  0  0  0  0
   -0.6616    0.7863   -0.0842 H   0  0  0  0  0  0  0  0  0  0  0  0
   -2.0762    2.2201   -1.5305 H   0  0  0  0  0  0  0  0  0  0  0  0
   -3.3330    2.2512   -0.2704 H   0  0  0  0  0  0  0  0  0  0  0  0
   -2.8931    3.4738    1.7099 H   0  0  0  0  0  0  0  0  0  0  0  0
   -1.6827    2.4428    2.0150 H   0  0  0  0  0  0  0  0  0  0  0  0
   -1.2955    6.4315   -3.1128 H   0  0  0  0  0  0  0  0  0  0  0  0
   -2.9129    6.2481   -2.3928 H   0  0  0  0  0  0  0  0  0  0  0  0
   -1.6346    7.1088   -1.5021 H   0  0  0  0  0  0  0  0  0  0  0  0
   -1.5746   -1.6555    1.1623 H   0  0  0  0  0  0  0  0  0  0  0  0
   -2.4377   -2.7892    0.0954 H   0  0  0  0  0  0  0  0  0  0  0  0
    0.2985   -5.4217   -0.3251 H   0  0  0  0  0  0  0  0  0  0  0  0
    2.2300   -5.0431   -0.3911 H   0  0  0  0  0  0  0  0  0  0  0  0
    1.7757    0.0783    1.5255 H   0  0  0  0  0  0  0  0  0  0  0  0
    6.7867   -2.0757   -2.0213 H   0  0  0  0  0  0  0  0  0  0  0  0
    6.4311    1.0060    2.3094 H   0  0  0  0  0  0  0  0  0  0  0  0
    7.9619    0.5831    1.5056 H   0  0  0  0  0  0  0  0  0  0  0  0
    7.5076    2.2747   -0.2496 H   0  0  0  0  0  0  0  0  0  0  0  0
    5.9768    2.6977    0.5543 H   0  0  0  0  0  0  0  0  0  0  0  0
    7.7766    4.2864    1.1751 H   0  0  0  0  0  0  0  0  0  0  0  0
    7.2284    3.3571    2.5908 H   0  0  0  0  0  0  0  0  0  0  0  0
    8.7592    2.9342    1.7869 H   0  0  0  0  0  0  0  0  0  0  0  0
  1  2  1  0  0  0  0
  2  3  2  0  0  0  0
  3  4  1  0  0  0  0
  4  5  2  0  0  0  0
  1  5  1  0  0  0  0
  5  6  1  0  0  0  0
  6  7  1  0  0  0  0
  7  8  1  0  0  0  0
  8  9  1  0  0  0  0
  9 10  1  0  0  0  0
 10 11  1  0  0  0  0
 11 12  1  0  0  0  0
 11 13  1  0  0  0  0
 11 14  1  0  0  0  0
 14 15  2  0  0  0  0
 14 16  1  0  0  0  0
 16 17  1  0  0  0  0
  8 18  1  0  0  0  0
 18 19  1  0  0  0  0
 19 20  1  0  0  0  0
 19 21  1  0  0  0  0
 21 22  1  0  0  0  0
 21 23  1  0  0  0  0
 21 24  1  0  0  0  0
 24 25  1  0  0  0  0
 24 26  1  0  0  0  0
 24 27  1  0  0  0  0
 27 28  1  0  0  0  0
 27 29  1  0  0  0  0
 19 29  1  0  0  0  0
 27 30  1  0  0  0  0
 30 31  1  0  0  0  0
 31 32  2  0  0  0  0
 30 33  1  0  0  0  0
 33 34  1  0  0  0  0
 32 34  1  0  0  0  0
 33 35  2  0  0  0  0
 35 36  1  0  0  0  0
 36 37  2  0  0  0  0
 37 38  1  0  0  0  0
 34 38  2  0  0  0  0
 38 39  1  0  0  0  0
 39 40  1  0  0  0  0
 40 41  1  0  0  0  0
  1 42  1  0  0  0  0
  1 43  1  0  0  0  0
  2 44  1  0  0  0  0
  3 45  1  0  0  0  0
  4 46  1  0  0  0  0
  6 47  1  0  0  0  0
  6 48  1  0  0  0  0
  7 49  1  0  0  0  0
  7 50  1  0  0  0  0
  9 51  1  0  0  0  0
  9 52  1  0  0  0  0
 10 53  1  0  0  0  0
 10 54  1  0  0  0  0
 13 55  1  0  0  0  0
 13 56  1  0  0  0  0
 17 57  1  0  0  0  0
 17 58  1  0  0  0  0
 17 59  1  0  0  0  0
 18 60  1  0  0  0  0
 18 61  1  0  0  0  0
 23 62  1  0  0  0  0
 26 63  1  0  0  0  0
 31 64  1  0  0  0  0
 36 65  1  0  0  0  0
 39 66  1  0  0  0  0
 39 67  1  0  0  0  0
 40 68  1  0  0  0  0
 40 69  1  0  0  0  0
 41 70  1  0  0  0  0
 41 71  1  0  0  0  0
 41 72  1  0  0  0  0
M  CHG  1   8   1
M  END
$$$$
