
     RDKit          3D

 17 18  0  0  0  0  0  0  0  0999 V2000
    1.2200    1.1640    2.6760 N   0  0  0  0  0  0  0  0  0  0  0  0
   -0.0500    0.4380    2.5550 C   0  0  2  0  0  0  0  0  0  0  0  0
   -0.5900    0.1380    3.9290 C   0  0  0  0  0  0  0  0  0  0  0  0
    0.1680   -0.0250    4.8540 O   0  0  0  0  0  0  0  0  0  0  0  0
   -1.9150    0.0510    4.1250 O   0  0  0  0  0  0  0  0  0  0  0  0
    0.1810   -0.8720    1.8000 C   0  0  0  0  0  0  0  0  0  0  0  0
    0.7210   -0.5720    0.4260 C   0  0  0  0  0  0  0  0  0  0  0  0
    2.0310   -0.4570    0.0860 C   0  0  0  0  0  0  0  0  0  0  0  0
    2.1280   -0.1840   -1.2310 N   0  0  0  0  0  0  0  0  0  0  0  0
    0.8700   -0.1170   -1.7680 C   0  0  0  0  0  0  0  0  0  0  0  0
    0.3670    0.1430   -3.1170 C   0  0  0  0  0  0  0  0  0  0  0  0
   -1.1150    0.1370   -3.3340 C   0  0  0  0  0  0  0  0  0  0  0  0
   -1.9750   -0.1170   -2.2350 C   0  0  0  0  0  0  0  0  0  0  0  0
   -1.4830   -0.3520   -1.0050 C   0  0  0  0  0  0  0  0  0  0  0  0
   -0.0400   -0.3650   -0.7410 C   0  0  0  0  0  0  0  0  0  0  0  0
   -1.5760    0.3480   -4.4380 O   0  0  0  0  0  0  0  0  0  0  0  0
    1.1310    0.3570   -4.0370 O   0  0  0  0  0  0  0  0  0  0  0  0
  2  1  1  1
  2  3  1  0
  2  6  1  0
  3  4  2  0
  3  5  1  0
  6  7  1  0
  7  8  2  0
  7 15  1  0
  8  9  1  0
  9 10  1  0
 10 11  1  0
 10 15  2  0
 11 12  1  0
 11 17  2  0
 12 13  1  0
 12 16  2  0
 13 14  2  0
 14 15  1  0
M  END
