
     RDKit          3D

 23 23  0  0  0  0  0  0  0  0999 V2000
   -0.5660    0.9740   -1.3600 C   0  0  0  0  0  0  0  0  0  0  0  0
    0.5100    1.0000   -2.3680 C   0  0  0  0  0  0  0  0  0  0  0  0
    0.7960   -0.1150   -3.0780 C   0  0  0  0  0  0  0  0  0  0  0  0
    0.0240   -1.3510   -2.8460 C   0  0  0  0  0  0  0  0  0  0  0  0
   -1.0490   -1.3730   -1.8300 C   0  0  0  0  0  0  0  0  0  0  0  0
   -1.3320   -0.2690   -1.1270 C   0  0  0  0  0  0  0  0  0  0  0  0
    0.3060    3.0840   -3.1550 C   0  0  0  0  0  0  0  0  0  0  0  0
    2.8240   -0.9500   -3.5210 C   0  0  0  0  0  0  0  0  0  0  0  0
   -1.8320   -2.6380   -1.5900 C   0  0  0  0  0  0  0  0  0  0  0  0
   -2.4310   -0.2940   -0.0970 C   0  0  0  0  0  0  0  0  0  0  0  0
   -1.8600   -0.6950    1.2370 C   0  0  0  0  0  0  0  0  0  0  0  0
   -2.0740    0.0510    2.2920 C   0  0  0  0  0  0  0  0  0  0  0  0
   -3.0280    1.2150    2.2100 C   0  0  0  0  0  0  0  0  0  0  0  0
   -1.3660   -0.2520    3.5870 C   0  0  0  0  0  0  0  0  0  0  0  0
   -0.0400    0.5070    3.6350 C   0  0  0  0  0  0  0  0  0  0  0  0
    0.6670    0.2030    4.9300 C   0  0  0  0  0  0  0  0  0  0  0  0
    1.9070   -0.2190    4.9150 C   0  0  0  0  0  0  0  0  0  0  0  0
    2.5600   -0.6840    6.1920 C   0  0  0  0  0  0  0  0  0  0  0  0
    2.6810   -0.2390    3.6220 C   0  0  0  0  0  0  0  0  0  0  0  0
   -0.8250    1.9740   -0.7210 O   0  0  0  0  0  0  0  0  0  0  0  0
    1.2140    2.1410   -2.5820 O   0  0  0  0  0  0  0  0  0  0  0  0
    1.7860   -0.0950   -4.0060 O   0  0  0  0  0  0  0  0  0  0  0  0
    0.2780   -2.3540   -3.4830 O   0  0  0  0  0  0  0  0  0  0  0  0
  1  2  1  0
  1  6  1  0
  1 20  2  0
  2  3  2  0
  2 21  1  0
  3  4  1  0
  3 22  1  0
  4  5  1  0
  4 23  2  0
  5  6  2  0
  5  9  1  0
  6 10  1  0
  7 21  1  0
  8 22  1  0
 10 11  1  0
 11 12  2  3
 12 13  1  0
 12 14  1  0
 14 15  1  0
 15 16  1  0
 16 17  2  3
 17 18  1  0
 17 19  1  0
M  END
