
     RDKit          3D

 48 49  0  0  0  0  0  0  0  0999 V2000
    1.7260   -1.7010  -11.1730 C   0  0  0  0  0  0  0  0  0  0  0  0
    2.4560   -2.6610  -11.3190 O   0  0  0  0  0  0  0  0  0  0  0  0
    0.3530   -1.8850  -10.6680 C   0  0  0  0  0  0  0  0  0  0  0  0
   -0.1370   -3.2700  -10.3350 C   0  0  0  0  0  0  0  0  0  0  0  0
   -0.4650   -0.8370  -10.5010 C   0  0  0  0  0  0  0  0  0  0  0  0
   -0.0180    0.5310  -10.8230 C   0  0  0  0  0  0  0  0  0  0  0  0
   -0.7740    1.4700  -10.6720 O   0  0  0  0  0  0  0  0  0  0  0  0
    1.3530    0.7560  -11.3260 C   0  0  0  0  0  0  0  0  0  0  0  0
    1.8000    2.0360  -11.6320 C   0  0  0  0  0  0  0  0  0  0  0  0
    3.0890    2.2200  -12.1080 C   0  0  0  0  0  0  0  0  0  0  0  0
    3.9330    1.1390  -12.2800 C   0  0  0  0  0  0  0  0  0  0  0  0
    3.5020   -0.1430  -11.9790 C   0  0  0  0  0  0  0  0  0  0  0  0
    2.2120   -0.3430  -11.5010 C   0  0  0  0  0  0  0  0  0  0  0  0
   -1.8620   -1.0600   -9.9840 C   0  0  0  0  0  0  0  0  0  0  0  0
   -1.8590   -0.9800   -8.4790 C   0  0  0  0  0  0  0  0  0  0  0  0
   -2.6700   -0.1540   -7.8650 C   0  0  0  0  0  0  0  0  0  0  0  0
   -3.6810    0.6350   -8.6560 C   0  0  0  0  0  0  0  0  0  0  0  0
   -2.5920    0.0050   -6.3690 C   0  0  0  0  0  0  0  0  0  0  0  0
   -1.6060    1.1230   -6.0260 C   0  0  0  0  0  0  0  0  0  0  0  0
   -1.5280    1.2830   -4.5300 C   0  0  0  0  0  0  0  0  0  0  0  0
   -0.3680    1.2220   -3.9240 C   0  0  0  0  0  0  0  0  0  0  0  0
    0.8990    1.1170   -4.7320 C   0  0  0  0  0  0  0  0  0  0  0  0
   -0.3010    1.2560   -2.4190 C   0  0  0  0  0  0  0  0  0  0  0  0
   -0.3740   -0.1700   -1.8720 C   0  0  0  0  0  0  0  0  0  0  0  0
   -0.3070   -0.1350   -0.3670 C   0  0  0  0  0  0  0  0  0  0  0  0
   -1.2510   -0.7010    0.3430 C   0  0  0  0  0  0  0  0  0  0  0  0
   -2.4650   -1.2770   -0.3390 C   0  0  0  0  0  0  0  0  0  0  0  0
   -1.1230   -0.7750    1.8420 C   0  0  0  0  0  0  0  0  0  0  0  0
   -1.7510    0.4700    2.4700 C   0  0  0  0  0  0  0  0  0  0  0  0
   -1.6230    0.3960    3.9700 C   0  0  0  0  0  0  0  0  0  0  0  0
   -1.0470    1.3710    4.6270 C   0  0  0  0  0  0  0  0  0  0  0  0
   -0.6130    2.6170    3.8990 C   0  0  0  0  0  0  0  0  0  0  0  0
   -0.8170    1.2470    6.1110 C   0  0  0  0  0  0  0  0  0  0  0  0
    0.5500    0.6110    6.3650 C   0  0  0  0  0  0  0  0  0  0  0  0
    0.7790    0.4870    7.8490 C   0  0  0  0  0  0  0  0  0  0  0  0
    1.0760   -0.6770    8.3710 C   0  0  0  0  0  0  0  0  0  0  0  0
    1.2990   -1.8690    7.4760 C   0  0  0  0  0  0  0  0  0  0  0  0
    1.1930   -0.8240    9.8660 C   0  0  0  0  0  0  0  0  0  0  0  0
   -0.1700   -1.1960   10.4510 C   0  0  0  0  0  0  0  0  0  0  0  0
   -0.0530   -1.3430   11.9460 C   0  0  0  0  0  0  0  0  0  0  0  0
   -0.8420   -0.6580   12.7360 C   0  0  0  0  0  0  0  0  0  0  0  0
   -1.9490    0.1800   12.1510 C   0  0  0  0  0  0  0  0  0  0  0  0
   -0.6430   -0.7090   14.2290 C   0  0  0  0  0  0  0  0  0  0  0  0
    0.3210    0.3990   14.6530 C   0  0  0  0  0  0  0  0  0  0  0  0
    0.5200    0.3480   16.1460 C   0  0  0  0  0  0  0  0  0  0  0  0
    1.7290    0.2640   16.6430 C   0  0  0  0  0  0  0  0  0  0  0  0
    1.9230    0.0870   18.1270 C   0  0  0  0  0  0  0  0  0  0  0  0
    2.9260    0.3440   15.7310 C   0  0  0  0  0  0  0  0  0  0  0  0
  1  2  2  0
  1  3  1  0
  1 13  1  0
  3  4  1  0
  3  5  2  0
  5  6  1  0
  5 14  1  0
  6  7  2  0
  6  8  1  0
  8  9  1  0
  8 13  2  0
  9 10  2  0
 10 11  1  0
 11 12  2  0
 12 13  1  0
 14 15  1  0
 15 16  2  3
 16 17  1  0
 16 18  1  0
 18 19  1  0
 19 20  1  0
 20 21  2  3
 21 22  1  0
 21 23  1  0
 23 24  1  0
 24 25  1  0
 25 26  2  3
 26 27  1  0
 26 28  1  0
 28 29  1  0
 29 30  1  0
 30 31  2  3
 31 32  1  0
 31 33  1  0
 33 34  1  0
 34 35  1  0
 35 36  2  3
 36 37  1  0
 36 38  1  0
 38 39  1  0
 39 40  1  0
 40 41  2  3
 41 42  1  0
 41 43  1  0
 43 44  1  0
 44 45  1  0
 45 46  2  3
 46 47  1  0
 46 48  1  0
M  END
