MSS - Model conformer
     RDKit          3D

 38 41  0  0  0  0  0  0  0  0999 V2000
   69.6240   13.1750   21.0960 N   0  0  0  0  0  0  0  0  0  0  0  0
   70.3570   14.3000   20.9630 C   0  0  0  0  0  0  0  0  0  0  0  0
   70.0830   15.1500   19.9590 N   0  0  0  0  0  0  0  0  0  0  0  0
   71.3910   14.6080   21.7870 N   0  0  0  0  0  0  0  0  0  0  0  0
   71.7400   13.8080   22.8300 C   0  0  0  0  0  0  0  0  0  0  0  0
   72.6940   14.1080   23.5800 O   0  0  0  0  0  0  0  0  0  0  0  0
   71.2730   11.6680   24.0200 N   0  0  0  0  0  0  0  0  0  0  0  0
   70.7970   10.3020   23.8690 C   0  0  2  0  0  0  0  0  0  0  0  0
   69.3940   10.2380   23.2640 C   0  0  2  0  0  0  0  0  0  0  0  0
   69.1670   11.2120   22.2340 N   0  0  0  0  0  0  0  0  0  0  0  0
   70.9730   12.5810   23.0610 C   0  0  0  0  0  0  0  0  0  0  0  0
   69.8850   12.3180   22.1120 C   0  0  0  0  0  0  0  0  0  0  0  0
   70.9140    9.4010   25.0710 C   0  0  0  0  0  0  0  0  0  0  0  0
   72.4830    8.8920   25.5110 S   0  0  0  0  0  0  0  0  0  0  0  0
   69.8050    8.9340   25.6760 C   0  0  0  0  0  0  0  0  0  0  0  0
   69.9220    7.7520   26.9000 S   0  0  0  0  0  0  0  0  0  0  0  0
   68.4210    9.3940   25.2530 C   0  0  2  0  0  0  0  0  0  0  0  0
   68.4100   10.4390   24.2590 O   0  0  0  0  0  0  0  0  0  0  0  0
   67.6210    9.8920   26.4350 C   0  0  0  0  0  0  0  0  0  0  0  0
   66.3380   10.3490   25.9690 O   0  0  0  0  0  0  0  0  0  0  0  0
   65.4420   11.2760   26.9400 P   0  0  0  0  0  5  0  0  0  0  0  0
   66.3260   12.4260   27.3340 O   0  0  0  0  0  0  0  0  0  0  0  0
   65.1040   10.3220   28.0960 O   0  0  0  0  0  0  0  0  0  0  0  0
   64.2050   11.5870   26.1790 O   0  0  0  0  0  0  0  0  0  0  0  0
   72.2820    7.0900   27.0840 Mo  0  0  0  0  0  4  0  0  0  0  0  0
   72.5910    5.6190   26.2010 O   0  0  0  0  0  0  0  0  0  0  0  0
   70.6370   16.0000   19.8580 H   0  0  0  0  0  0  0  0  0  0  0  0
   69.3060   14.9190   19.3400 H   0  0  0  0  0  0  0  0  0  0  0  0
   71.9210   15.4630   21.6190 H   0  0  0  0  0  0  0  0  0  0  0  0
   71.8250   11.9360   24.8350 H   0  0  0  0  0  0  0  0  0  0  0  0
   71.4640    9.8470   23.1000 H   0  0  0  0  0  0  0  0  0  0  0  0
   69.2470    9.2230   22.8260 H   0  0  0  0  0  0  0  0  0  0  0  0
   68.4170   11.0440   21.5640 H   0  0  0  0  0  0  0  0  0  0  0  0
   67.8860    8.5140   24.8270 H   0  0  0  0  0  0  0  0  0  0  0  0
   68.1640   10.6720   27.0180 H   0  0  0  0  0  0  0  0  0  0  0  0
   67.5330    9.1270   27.2420 H   0  0  0  0  0  0  0  0  0  0  0  0
   65.7980   12.9710   27.9050 H   0  0  0  0  0  0  0  0  0  0  0  0
   64.5760   10.8670   28.6670 H   0  0  0  0  0  0  0  0  0  0  0  0
  1  2  2  0
  1 12  1  0
  2  3  1  0
  2  4  1  0
  3 27  1  0
  3 28  1  0
  4  5  1  0
  4 29  1  0
  5  6  2  0
  5 11  1  0
  7  8  1  0
  7 11  1  0
  7 30  1  0
  8  9  1  0
  8 13  1  0
  8 31  1  6
  9 10  1  0
  9 18  1  0
  9 32  1  6
 10 12  1  0
 10 33  1  0
 11 12  2  0
 13 14  1  0
 13 15  2  0
 14 25  1  0
 15 16  1  0
 15 17  1  0
 16 25  1  0
 17 18  1  0
 17 19  1  0
 17 34  1  6
 19 20  1  0
 19 35  1  0
 19 36  1  0
 20 21  1  0
 21 22  1  0
 21 23  1  0
 21 24  2  0
 22 37  1  0
 23 38  1  0
 25 26  2  0
M  END
$$$$
