C26H29N11O14P2
APtclcactv12141712203D 0   0.00000     0.00000

 82 88  0  0  1  0  0  0  0  0999 V2000
    2.9080   -3.9214    0.2052 C   0  0  0  0  0  0  0  0  0  0  0  0
    2.7102   -5.3377   -0.1554 N   0  0  0  0  0  0  0  0  0  0  0  0
    3.6763   -6.2687    0.1040 C   0  0  0  0  0  0  0  0  0  0  0  0
    4.9488   -5.9803    0.1379 N   0  0  0  0  0  0  0  0  0  0  0  0
    5.3270   -4.6749   -0.0705 C   0  0  0  0  0  0  0  0  0  0  0  0
    4.3674   -3.6243   -0.0475 C   0  0  0  0  0  0  0  0  0  0  0  0
    6.4928   -4.1427   -0.3073 N   0  0  0  0  0  0  0  0  0  0  0  0
    6.3191   -2.7548   -0.4405 N   0  0  0  0  0  0  0  0  0  0  0  0
    5.0037   -2.4738   -0.2750 C   0  0  0  0  0  0  0  0  0  0  0  0
    7.3778   -1.7793   -0.7121 C   0  0  1  0  0  0  0  0  0  0  0  0
    8.2020   -2.2779   -1.2222 H   0  0  0  0  0  0  0  0  0  0  0  0
    6.8342   -0.6941   -1.5962 C   0  0  0  0  0  0  0  0  0  0  0  0
    6.5332    0.4963   -1.1267 C   0  0  0  0  0  0  0  0  0  0  0  0
    6.7122    0.8006    0.2159 N   0  0  0  0  0  0  0  0  0  0  0  0
    7.5244    0.0219    0.9918 C   0  0  0  0  0  0  0  0  0  0  0  0
    7.8725   -1.2125    0.5882 C   0  0  0  0  0  0  0  0  0  0  0  0
    8.7215   -1.9951    1.4053 C   0  0  0  0  0  0  0  0  0  0  0  0
    9.1296   -1.5491    2.4625 O   0  0  0  0  0  0  0  0  0  0  0  0
    9.0789   -3.2342    1.0138 N   0  0  0  0  0  0  0  0  0  0  0  0
    6.0304    1.9575    0.8015 C   0  0  2  0  0  0  0  0  0  0  0  0
    6.1993    1.9918    1.8778 H   0  0  0  0  0  0  0  0  0  0  0  0
    4.6156    1.9048    0.5160 O   0  0  0  0  0  0  0  0  0  0  0  0
    6.5212    3.2634    0.1381 C   0  0  2  0  0  0  0  0  0  0  0  0
    6.9130    3.0616   -0.8588 H   0  0  0  0  0  0  0  0  0  0  0  0
    7.5161    3.8931    0.9478 O   0  0  0  0  0  0  0  0  0  0  0  0
    5.2525    4.1414    0.0537 C   0  0  2  0  0  0  0  0  0  0  0  0
    5.0172    4.3736   -0.9850 H   0  0  0  0  0  0  0  0  0  0  0  0
    5.4242    5.3431    0.8076 O   0  0  0  0  0  0  0  0  0  0  0  0
    4.1441    3.2603    0.6778 C   0  0  1  0  0  0  0  0  0  0  0  0
    4.0225    3.4958    1.7351 H   0  0  0  0  0  0  0  0  0  0  0  0
    2.8225    3.4600   -0.0668 C   0  0  0  0  0  0  0  0  0  0  0  0
    1.7879    2.7293    0.5947 O   0  0  0  0  0  0  0  0  0  0  0  0
    0.4334    2.9834   -0.2377 P   0  0  0  0  0  0  0  0  0  0  0  0
    0.0455    4.4762   -0.1469 O   0  5  0  0  0  0  0  0  0  0  0  0
    0.6583    2.5988   -1.7171 O   0  0  0  0  0  0  0  0  0  0  0  0
   -0.7512    2.0827    0.3768 O   0  0  0  0  0  0  0  0  0  0  0  0
   -1.8811    1.9591   -0.7634 P   0  0  0  0  0  0  0  0  0  0  0  0
   -2.6580    3.2907   -0.8650 O   0  5  0  0  0  0  0  0  0  0  0  0
   -1.2114    1.6487   -2.1206 O   0  0  0  0  0  0  0  0  0  0  0  0
   -2.8994    0.7713   -0.3833 O   0  0  0  0  0  0  0  0  0  0  0  0
   -3.8020    0.6335   -1.4825 C   0  0  0  0  0  0  0  0  0  0  0  0
   -4.8020   -0.4853   -1.1841 C   0  0  2  0  0  0  0  0  0  0  0  0
   -4.2760   -1.4066   -0.9336 H   0  0  0  0  0  0  0  0  0  0  0  0
   -5.7341   -0.7106   -2.3952 C   0  0  1  0  0  0  0  0  0  0  0  0
   -5.7922    0.1907   -3.0053 H   0  0  0  0  0  0  0  0  0  0  0  0
   -5.2790   -1.8156   -3.1786 O   0  5  0  0  0  0  0  0  0  0  0  0
   -7.1071   -1.0231   -1.7591 C   0  0  1  0  0  0  0  0  0  0  0  0
   -7.8439   -0.2763   -2.0549 H   0  0  0  0  0  0  0  0  0  0  0  0
   -7.5451   -2.3315   -2.1312 O   0  5  0  0  0  0  0  0  0  0  0  0
   -6.8421   -0.9497   -0.2390 C   0  0  1  0  0  0  0  0  0  0  0  0
   -6.6304   -1.9426    0.1577 H   0  0  0  0  0  0  0  0  0  0  0  0
   -5.6813   -0.0992   -0.1054 O   0  0  0  0  0  0  0  0  0  0  0  0
   -7.9920   -0.3603    0.4513 N   0  0  0  0  0  0  0  0  0  0  0  0
   -8.1437    0.9513    0.7905 C   0  0  0  0  0  0  0  0  0  0  0  0
   -9.2841    1.1258    1.3927 N   0  0  0  0  0  0  0  0  0  0  0  0
   -9.1163   -1.0260    0.8696 C   0  0  0  0  0  0  0  0  0  0  0  0
   -9.9350   -0.0592    1.4779 C   0  0  0  0  0  0  0  0  0  0  0  0
   -9.5352   -2.2860    0.8163 N   0  0  0  0  0  0  0  0  0  0  0  0
  -10.7016   -2.6273    1.3224 C   0  0  0  0  0  0  0  0  0  0  0  0
  -11.5061   -1.7543    1.9006 N   0  0  0  0  0  0  0  0  0  0  0  0
  -11.1705   -0.4724    2.0042 C   0  0  0  0  0  0  0  0  0  0  0  0
  -12.0202    0.4350    2.6123 N   0  0  0  0  0  0  0  0  0  0  0  0
    2.2821   -3.2845   -0.4198 H   0  0  0  0  0  0  0  0  0  0  0  0
    2.6705   -3.7658    1.2576 H   0  0  0  0  0  0  0  0  0  0  0  0
    1.8833   -5.6121   -0.5821 H   0  0  0  0  0  0  0  0  0  0  0  0
    3.3733   -7.2885    0.2897 H   0  0  0  0  0  0  0  0  0  0  0  0
    4.5514   -1.4940   -0.3190 H   0  0  0  0  0  0  0  0  0  0  0  0
    6.6867   -0.8971   -2.6466 H   0  0  0  0  0  0  0  0  0  0  0  0
    6.1407    1.2483   -1.7952 H   0  0  0  0  0  0  0  0  0  0  0  0
    7.8891    0.4009    1.9351 H   0  0  0  0  0  0  0  0  0  0  0  0
    8.7538   -3.5895    0.1718 H   0  0  0  0  0  0  0  0  0  0  0  0
    9.6611   -3.7709    1.5742 H   0  0  0  0  0  0  0  0  0  0  0  0
    7.7836    4.6992    0.4856 H   0  0  0  0  0  0  0  0  0  0  0  0
    6.1656    5.8194    0.4094 H   0  0  0  0  0  0  0  0  0  0  0  0
    2.5685    4.5200   -0.0781 H   0  0  0  0  0  0  0  0  0  0  0  0
    2.9242    3.0998   -1.0905 H   0  0  0  0  0  0  0  0  0  0  0  0
   -4.3388    1.5704   -1.6315 H   0  0  0  0  0  0  0  0  0  0  0  0
   -3.2412    0.3886   -2.3845 H   0  0  0  0  0  0  0  0  0  0  0  0
   -7.4234    1.7306    0.5895 H   0  0  0  0  0  0  0  0  0  0  0  0
  -11.0123   -3.6599    1.2622 H   0  0  0  0  0  0  0  0  0  0  0  0
  -12.8720    0.1381    2.9690 H   0  0  0  0  0  0  0  0  0  0  0  0
  -11.7640    1.3680    2.6819 H   0  0  0  0  0  0  0  0  0  0  0  0
  1  2  1  0  0  0  0
  2  3  1  0  0  0  0
  3  4  2  0  0  0  0
  4  5  1  0  0  0  0
  5  6  1  0  0  0  0
  1  6  1  0  0  0  0
  5  7  2  0  0  0  0
  7  8  1  0  0  0  0
  8  9  1  0  0  0  0
  6  9  2  0  0  0  0
  8 10  1  0  0  0  0
 10 11  1  0  0  0  0
 10 12  1  0  0  0  0
 12 13  2  0  0  0  0
 13 14  1  0  0  0  0
 14 15  1  0  0  0  0
 15 16  2  0  0  0  0
 10 16  1  0  0  0  0
 16 17  1  0  0  0  0
 17 18  2  0  0  0  0
 17 19  1  0  0  0  0
 14 20  1  0  0  0  0
 20 21  1  0  0  0  0
 20 22  1  0  0  0  0
 20 23  1  0  0  0  0
 23 24  1  0  0  0  0
 23 25  1  0  0  0  0
 23 26  1  0  0  0  0
 26 27  1  0  0  0  0
 26 28  1  0  0  0  0
 26 29  1  0  0  0  0
 29 30  1  0  0  0  0
 22 29  1  0  0  0  0
 29 31  1  0  0  0  0
 31 32  1  0  0  0  0
 32 33  1  0  0  0  0
 33 34  1  0  0  0  0
 33 35  2  0  0  0  0
 33 36  1  0  0  0  0
 36 37  1  0  0  0  0
 37 38  1  0  0  0  0
 37 39  2  0  0  0  0
 37 40  1  0  0  0  0
 40 41  1  0  0  0  0
 41 42  1  0  0  0  0
 42 43  1  0  0  0  0
 42 44  1  0  0  0  0
 44 45  1  0  0  0  0
 44 46  1  0  0  0  0
 44 47  1  0  0  0  0
 47 48  1  0  0  0  0
 47 49  1  0  0  0  0
 47 50  1  0  0  0  0
 50 51  1  0  0  0  0
 50 52  1  0  0  0  0
 42 52  1  0  0  0  0
 50 53  1  0  0  0  0
 53 54  1  0  0  0  0
 54 55  2  0  0  0  0
 53 56  1  0  0  0  0
 56 57  1  0  0  0  0
 55 57  1  0  0  0  0
 56 58  2  0  0  0  0
 58 59  1  0  0  0  0
 59 60  2  0  0  0  0
 60 61  1  0  0  0  0
 57 61  2  0  0  0  0
 61 62  1  0  0  0  0
  1 63  1  0  0  0  0
  1 64  1  0  0  0  0
  2 65  1  0  0  0  0
  3 66  1  0  0  0  0
  9 67  1  0  0  0  0
 12 68  1  0  0  0  0
 13 69  1  0  0  0  0
 15 70  1  0  0  0  0
 19 71  1  0  0  0  0
 19 72  1  0  0  0  0
 25 73  1  0  0  0  0
 28 74  1  0  0  0  0
 31 75  1  0  0  0  0
 31 76  1  0  0  0  0
 41 77  1  0  0  0  0
 41 78  1  0  0  0  0
 54 79  1  0  0  0  0
 59 80  1  0  0  0  0
 62 81  1  0  0  0  0
 62 82  1  0  0  0  0
M  CHG  4  34  -1  38  -1  46  -1  49  -1
M  END
$$$$
