C20H27N4O8P2S
APtclcactv12141711593D 0   0.00000     0.00000

 62 64  0  0  1  0  0  0  0  0999 V2000
    5.1980   -2.9655   -0.8190 C   0  0  0  0  0  0  0  0  0  0  0  0
    6.1294   -3.8146   -0.2513 C   0  0  0  0  0  0  0  0  0  0  0  0
    7.0447   -3.3253    0.6618 C   0  0  0  0  0  0  0  0  0  0  0  0
    7.0288   -1.9868    1.0069 C   0  0  0  0  0  0  0  0  0  0  0  0
    6.0980   -1.1375    0.4385 C   0  0  0  0  0  0  0  0  0  0  0  0
    5.1818   -1.6270   -0.4736 C   0  0  0  0  0  0  0  0  0  0  0  0
    4.1673   -0.7011   -1.0936 C   0  0  1  0  0  0  0  0  0  0  0  0
    4.5499    0.3195   -1.0786 H   0  0  0  0  0  0  0  0  0  0  0  0
    3.9228   -1.0982   -2.4444 O   0  0  0  0  0  0  0  0  0  0  0  0
    2.8818   -0.7672   -0.3100 C   0  0  0  0  0  0  0  0  0  0  0  0
    1.6507   -1.9918   -0.3350 S   0  0  0  0  0  0  0  0  0  0  0  0
    2.4081    0.0834    0.5709 N   0  3  0  0  0  0  0  0  0  0  0  0
    3.1783    1.2883    0.8894 C   0  0  0  0  0  0  0  0  0  0  0  0
    2.4880    2.4944    0.3063 C   0  0  0  0  0  0  0  0  0  0  0  0
    2.1046    3.5489    1.1118 C   0  0  0  0  0  0  0  0  0  0  0  0
    2.3713    3.5121    2.5945 C   0  0  0  0  0  0  0  0  0  0  0  0
    1.4996    4.5937    0.5648 N   0  0  0  0  0  0  0  0  0  0  0  0
    1.2608    4.6386   -0.7305 C   0  0  0  0  0  0  0  0  0  0  0  0
    0.5701    5.8478   -1.3066 C   0  0  0  0  0  0  0  0  0  0  0  0
    1.6094    3.6560   -1.5359 N   0  0  0  0  0  0  0  0  0  0  0  0
    2.2253    2.5765   -1.0625 C   0  0  0  0  0  0  0  0  0  0  0  0
    2.5905    1.5450   -1.9123 N   0  0  0  0  0  0  0  0  0  0  0  0
    1.2560   -0.1224    1.1740 C   0  0  0  0  0  0  0  0  0  0  0  0
    0.7259    0.8635    2.1829 C   0  0  0  0  0  0  0  0  0  0  0  0
    0.5585   -1.2456    0.8666 C   0  0  0  0  0  0  0  0  0  0  0  0
   -0.7675   -1.7301    1.3940 C   0  0  0  0  0  0  0  0  0  0  0  0
   -1.8957   -1.1832    0.5172 C   0  0  0  0  0  0  0  0  0  0  0  0
   -3.1530   -1.6426    1.0174 O   0  0  0  0  0  0  0  0  0  0  0  0
   -4.2885   -1.0326    0.0526 P   0  0  1  0  0  0  0  0  0  0  0  0
   -4.1430    0.4388   -0.0117 O   0  0  0  0  0  0  0  0  0  0  0  0
   -4.1278   -1.6529   -1.4244 O   0  0  0  0  0  0  0  0  0  0  0  0
   -5.7431   -1.4031    0.6349 O   0  0  0  0  0  0  0  0  0  0  0  0
   -6.8021   -0.4539   -0.1199 P   0  0  0  0  0  0  0  0  0  0  0  0
   -6.4999   -0.4319   -1.5686 O   0  0  0  0  0  0  0  0  0  0  0  0
   -8.2909   -1.0223    0.1092 O   0  0  0  0  0  0  0  0  0  0  0  0
   -6.7009    1.0399    0.4721 O   0  0  0  0  0  0  0  0  0  0  0  0
    4.4858   -3.3468   -1.5357 H   0  0  0  0  0  0  0  0  0  0  0  0
    6.1419   -4.8603   -0.5208 H   0  0  0  0  0  0  0  0  0  0  0  0
    7.7720   -3.9888    1.1059 H   0  0  0  0  0  0  0  0  0  0  0  0
    7.7435   -1.6046    1.7208 H   0  0  0  0  0  0  0  0  0  0  0  0
    6.0851   -0.0919    0.7086 H   0  0  0  0  0  0  0  0  0  0  0  0
    3.5863   -2.0043   -2.4127 H   0  0  0  0  0  0  0  0  0  0  0  0
    3.2498    1.3984    1.9715 H   0  0  0  0  0  0  0  0  0  0  0  0
    4.1790    1.2024    0.4660 H   0  0  0  0  0  0  0  0  0  0  0  0
    3.4280    3.7059    2.7786 H   0  0  0  0  0  0  0  0  0  0  0  0
    1.7703    4.2742    3.0908 H   0  0  0  0  0  0  0  0  0  0  0  0
    2.1084    2.5297    2.9868 H   0  0  0  0  0  0  0  0  0  0  0  0
    1.3157    6.5876   -1.5980 H   0  0  0  0  0  0  0  0  0  0  0  0
   -0.0101    5.5528   -2.1808 H   0  0  0  0  0  0  0  0  0  0  0  0
   -0.0948    6.2777   -0.5574 H   0  0  0  0  0  0  0  0  0  0  0  0
    2.1733    1.4643   -2.7843 H   0  0  0  0  0  0  0  0  0  0  0  0
    3.2633    0.9036   -1.6353 H   0  0  0  0  0  0  0  0  0  0  0  0
    0.6871    1.8565    1.7349 H   0  0  0  0  0  0  0  0  0  0  0  0
   -0.2760    0.5647    2.4912 H   0  0  0  0  0  0  0  0  0  0  0  0
    1.3830    0.8826    3.0523 H   0  0  0  0  0  0  0  0  0  0  0  0
   -0.7893   -2.8197    1.3765 H   0  0  0  0  0  0  0  0  0  0  0  0
   -0.9009   -1.3805    2.4178 H   0  0  0  0  0  0  0  0  0  0  0  0
   -1.8739   -0.0935    0.5348 H   0  0  0  0  0  0  0  0  0  0  0  0
   -1.7623   -1.5328   -0.5065 H   0  0  0  0  0  0  0  0  0  0  0  0
   -4.2291   -2.6107   -1.3378 H   0  0  0  0  0  0  0  0  0  0  0  0
   -8.8925   -0.4265   -0.3580 H   0  0  0  0  0  0  0  0  0  0  0  0
   -6.9044    0.9810    1.4156 H   0  0  0  0  0  0  0  0  0  0  0  0
  1  2  1  0  0  0  0
  2  3  2  0  0  0  0
  3  4  1  0  0  0  0
  4  5  2  0  0  0  0
  5  6  1  0  0  0  0
  1  6  2  0  0  0  0
  6  7  1  0  0  0  0
  7  8  1  0  0  0  0
  7  9  1  0  0  0  0
  7 10  1  0  0  0  0
 10 11  1  0  0  0  0
 10 12  2  0  0  0  0
 12 13  1  0  0  0  0
 13 14  1  0  0  0  0
 14 15  1  0  0  0  0
 15 16  1  0  0  0  0
 15 17  2  0  0  0  0
 17 18  1  0  0  0  0
 18 19  1  0  0  0  0
 18 20  2  0  0  0  0
 20 21  1  0  0  0  0
 14 21  2  0  0  0  0
 21 22  1  0  0  0  0
 12 23  1  0  0  0  0
 23 24  1  0  0  0  0
 23 25  2  0  0  0  0
 11 25  1  0  0  0  0
 25 26  1  0  0  0  0
 26 27  1  0  0  0  0
 27 28  1  0  0  0  0
 28 29  1  0  0  0  0
 29 30  2  0  0  0  0
 29 31  1  0  0  0  0
 29 32  1  0  0  0  0
 32 33  1  0  0  0  0
 33 34  2  0  0  0  0
 33 35  1  0  0  0  0
 33 36  1  0  0  0  0
  1 37  1  0  0  0  0
  2 38  1  0  0  0  0
  3 39  1  0  0  0  0
  4 40  1  0  0  0  0
  5 41  1  0  0  0  0
  9 42  1  0  0  0  0
 13 43  1  0  0  0  0
 13 44  1  0  0  0  0
 16 45  1  0  0  0  0
 16 46  1  0  0  0  0
 16 47  1  0  0  0  0
 19 48  1  0  0  0  0
 19 49  1  0  0  0  0
 19 50  1  0  0  0  0
 22 51  1  0  0  0  0
 22 52  1  0  0  0  0
 24 53  1  0  0  0  0
 24 54  1  0  0  0  0
 24 55  1  0  0  0  0
 26 56  1  0  0  0  0
 26 57  1  0  0  0  0
 27 58  1  0  0  0  0
 27 59  1  0  0  0  0
 31 60  1  0  0  0  0
 35 61  1  0  0  0  0
 36 62  1  0  0  0  0
M  CHG  1  12   1
M  END
$$$$
